CRYSTAL
PRIMVEC
   4.0044569969   0.0000000000   0.0000000000
   0.0000000000   4.0044569969   0.0000000000
   0.0000000000   0.0000000000   4.2006359100
PRIMCOORD
5 1
Ba  2.0022285  2.0022285  0.01737383
Ti  0.0000000  0.0000000  2.2024479
O   0.0000000  2.0022285  2.01357057
O   2.0022285  0.0000000  2.01357057
O   0.0000000  0.0000000  4.02779663
